dichotomy-runner-app/src/test/resources/testNetwork.uct
##C 2007.05.01
Test case generated for illustrating dichotomy handling in FARAO 
##N
##ZAT
AAAAAA11 XXXXXXXXXXXX 1 2 400.00 0.00000 0.00000 -1500.0 0.00000
##ZCH
SSSSSS11 XXXXXXXXXXXX 1 2 400.00 0.00000 0.00000 -500.00 0.00000
##ZFR
FFFFFF11 XXXXXXXXXXXX 1 2 400.00 0.00000 0.00000 -2000.0 0.00000
##ZIT
IIIIIA11 XXXXXXXXXXXX 1 0        0.00000 0.00000 0.00000 0.00000
IIIIIA12 XXXXXXXXXXXX 1 0        0.00000 0.00000 0.00000 0.00000
IIIIIB11 XXXXXXXXXXXX 1 1        5000.00 0.00000 0.00000 0.00000
##ZSI
LLLLLL11 XXXXXXXXXXXX 1 2 400.00 0.00000 0.00000 -1000.0 0.00000
##L
AAAAAA11 IIIIIA12 1 1 0.1000 0.1000 0.100000   5000
SSSSSS11 IIIIIA11 1 1 0.1000 0.1000 0.100000   5000
FFFFFF11 IIIIIA11 1 1 0.1000 0.1000 0.100000   5000
LLLLLL11 IIIIIA12 1 1 0.1000 0.1000 0.100000   5000
IIIIIA11 IIIIIA12 1 2 0.0000 0.0000 0.000000   5000
IIIIIA11 IIIIIB11 1 1 0.1000 0.1000 0.100000   5000
IIIIIA12 IIIIIB11 1 1 0.1000 0.1000 0.100000   5000

